x0305_+_x1249
                    3D
 Schrodinger Suite 2021-3.
 11 11  0  0  1  0            999 V2000
    8.3830   -0.0160   27.4180 C   0  0  0  0  0  0
    8.9410   -0.5650   26.1240 C   0  0  0  0  0  0
   10.0760    0.2400   25.7110 N   0  0  0  0  0  0
   13.9740   -1.7640   20.5880 N   0  0  0  0  0  0
   10.7470    0.4040   24.2480 C   0  0  0  0  0  0
   11.9100    1.0660   23.8620 C   0  0  0  0  0  0
   12.7610    0.4850   22.9250 C   0  0  0  0  0  0
   12.4290   -0.7530   22.3660 C   0  0  0  0  0  0
   13.2690   -1.3270   21.3860 C   0  0  0  0  0  0
   11.2700   -1.4230   22.7520 C   0  0  0  0  0  0
   10.4310   -0.8440   23.6940 C   0  0  0  0  0  0
  1  2  1  0  0  0
  2  3  1  0  0  0
  3  5  1  0  0  0
  4  9  3  0  0  0
  5  6  2  0  0  0
  5 11  1  0  0  0
  6  7  1  0  0  0
  7  8  2  0  0  0
  8  9  1  0  0  0
  8 10  1  0  0  0
 10 11  2  0  0  0
M  END
> <entry id>
330

> <entry name>
breed_3.1

> <Breed Score>
10.0338901981404

> <Normalized Breed Score>
10.0338901981404

> <job name>
breed_3

> <subgroup title>
breed_3-out1

> <subgroupid>
breed_3-out1

> <subgroup collapsed>
0

$$$$
x1249_+_x0305
                    3D
 Schrodinger Suite 2021-3.
 18 19  0  0  1  0            999 V2000
    8.4410    0.6920   24.9290 N   0  0  0  0  0  0
    7.6960    1.4480   24.0220 C   0  0  0  0  0  0
    8.1680    2.4460   23.4520 O   0  0  0  0  0  0
    9.8240    1.0280   25.2560 C   0  0  0  0  0  0
    3.4670    1.0570   23.6600 O   0  0  0  0  0  0
    6.3280    0.9470   23.8110 N   0  0  0  0  0  0
    5.4710    0.8350   25.0370 C   0  0  0  0  0  0
    4.0410    0.3340   24.7350 C   0  0  0  0  0  0
    4.2140    1.0220   22.4610 C   0  0  0  0  0  0
    5.6080    1.6330   22.7060 C   0  0  0  0  0  0
   10.9040   -0.2020   24.6160 C   0  0  0  0  0  0
   10.5520   -1.3350   23.8940 C   0  0  0  0  0  0
   11.3420   -1.7500   22.8400 C   0  0  0  0  0  0
   12.4720   -1.0160   22.5320 C   0  0  0  0  0  0
   13.3670   -1.4560   21.3810 C   0  0  0  0  0  0
   14.0490   -1.7600   20.5260 N   0  0  0  0  0  0
   12.7670    0.1100   23.2980 C   0  0  0  0  0  0
   11.9850    0.4890   24.3080 N   0  0  0  0  0  0
  1  2  1  0  0  0
  1  4  1  0  0  0
  2  3  2  0  0  0
  2  6  1  0  0  0
  4 11  1  0  0  0
  5  8  1  0  0  0
  5  9  1  0  0  0
  6  7  1  0  0  0
  6 10  1  0  0  0
  7  8  1  0  0  0
  9 10  1  0  0  0
 11 12  2  0  0  0
 11 18  1  0  0  0
 12 13  1  0  0  0
 13 14  2  0  0  0
 14 15  1  0  0  0
 14 17  1  0  0  0
 15 16  3  0  0  0
 17 18  2  0  0  0
M  END
> <entry id>
331

> <entry name>
breed_3.2

> <Breed Score>
10.0338901981404

> <Normalized Breed Score>
10.0338901981404

> <job name>
breed_3

> <subgroup title>
breed_3-out1

> <subgroupid>
breed_3-out1

> <subgroup collapsed>
0

$$$$
x0107_+_x0434
                    3D
 Schrodinger Suite 2021-3.
 10 10  0  0  1  0            999 V2000
   10.0450   -0.6630   22.5460 C   0  0  0  0  0  0
    9.1540    0.6740   20.8440 O   0  0  0  0  0  0
    8.6000   -0.2440   21.3530 C   0  0  0  0  0  0
    7.2910   -0.6660   20.9230 N   0  0  0  0  0  0
    6.6110    0.0230   19.8590 C   0  0  0  0  0  0
    5.4070    0.6480   20.1420 C   0  0  0  0  0  0
    4.7780    1.3080   19.0980 C   0  0  0  0  0  0
    5.3710    1.2760   17.8410 C   0  0  0  0  0  0
    6.5200    0.6800   17.6310 N   0  0  0  0  0  0
    7.1530    0.0510   18.5860 C   0  0  0  0  0  0
  1  3  1  0  0  0
  2  3  2  0  0  0
  3  4  1  0  0  0
  4  5  1  0  0  0
  5  6  2  0  0  0
  5 10  1  0  0  0
  6  7  1  0  0  0
  7  8  2  0  0  0
  8  9  1  0  0  0
  9 10  2  0  0  0
M  END
> <entry id>
332

> <entry name>
breed_3.3

> <Breed Score>
11.8222339961936

> <Normalized Breed Score>
11.8222339961936

> <job name>
breed_3

> <subgroup title>
breed_3-out1

> <subgroupid>
breed_3-out1

> <subgroup collapsed>
0

$$$$
x0434_+_x0107
                    3D
 Schrodinger Suite 2021-3.
 17 18  0  0  1  0            999 V2000
    9.2390   -0.9740   22.4210 N   0  0  0  0  0  0
   10.5250   -0.4980   22.8250 C   0  0  0  0  0  0
   10.5630    0.3330   23.9260 C   0  0  0  0  0  0
   11.7690    0.8430   24.3410 C   0  0  0  0  0  0
   12.9280    0.5280   23.6450 C   0  0  0  0  0  0
   12.8820   -0.3030   22.5390 C   0  0  0  0  0  0
   11.6690   -0.8130   22.1180 C   0  0  0  0  0  0
    9.1480   -0.0440   21.4760 C   0  0  0  0  0  0
    9.4740    0.9690   20.9600 O   0  0  0  0  0  0
    7.9020   -0.6880   21.1000 N   0  0  0  0  0  0
    7.0480   -0.1040   20.0780 C   0  0  0  0  0  0
    7.4210   -0.1700   18.7420 C   0  0  0  0  0  0
    6.6690    0.3470   17.7900 N   0  0  0  0  0  0
    5.5370    0.9500   18.0780 C   0  0  0  0  0  0
    5.0830    1.0730   19.3850 C   0  0  0  0  0  0
    5.8540    0.5290   20.4130 C   0  0  0  0  0  0
    5.4110    0.6350   21.8710 C   0  0  0  0  0  0
  1  2  1  0  0  0
  1  8  1  0  0  0
  2  3  2  0  0  0
  2  7  1  0  0  0
  3  4  1  0  0  0
  4  5  2  0  0  0
  5  6  1  0  0  0
  6  7  2  0  0  0
  8  9  2  0  0  0
  8 10  1  0  0  0
 10 11  1  0  0  0
 11 12  2  0  0  0
 11 16  1  0  0  0
 12 13  1  0  0  0
 13 14  2  0  0  0
 14 15  1  0  0  0
 15 16  2  0  0  0
 16 17  1  0  0  0
M  END
> <entry id>
333

> <entry name>
breed_3.4

> <Breed Score>
11.8222339961936

> <Normalized Breed Score>
11.8222339961936

> <job name>
breed_3

> <subgroup title>
breed_3-out1

> <subgroupid>
breed_3-out1

> <subgroup collapsed>
0

$$$$
x0107_+_x0540
                    3D
 Schrodinger Suite 2021-3.
 22 23  0  0  1  0            999 V2000
   10.0450   -0.6630   22.5460 C   0  0  0  0  0  0
    9.1480   -0.0440   21.4760 C   0  0  0  0  0  0
    9.4740    0.9690   20.9600 O   0  0  0  0  0  0
    7.9020   -0.6880   21.1000 N   0  0  0  0  0  0
    7.0480   -0.1040   20.0780 C   0  0  0  0  0  0
    7.4210   -0.1700   18.7420 C   0  0  0  0  0  0
    6.6690    0.3470   17.7900 N   0  0  0  0  0  0
    5.5370    0.9500   18.0780 C   0  0  0  0  0  0
    5.0830    1.0730   19.3850 C   0  0  0  0  0  0
    5.8540    0.5290   20.4130 C   0  0  0  0  0  0
    2.8570    1.4420   24.1930 O   0  0  0  0  0  0
    2.8950    2.2840   23.3450 C   0  0  0  0  0  0
    4.0400    2.4190   22.4600 N   0  0  0  0  0  0
    5.1740    1.5250   22.5450 C   0  0  0  0  0  0
    4.8490    0.2900   21.7100 C   0  0  0  0  0  0
    1.8160    3.2270   23.1300 N   0  0  0  0  0  0
    0.6160    3.2690   23.9400 C   0  0  0  0  0  0
    0.5050    4.7100   24.4450 C   0  0  0  0  0  0
   -0.8180    4.9620   25.1500 C   0  0  0  0  0  0
   -1.9840    4.6450   24.2240 C   0  0  0  0  0  0
   -1.9280    3.2120   23.7100 C   0  0  0  0  0  0
   -0.5740    2.8570   23.0860 C   0  0  0  0  0  0
  1  2  1  0  0  0
  2  3  2  0  0  0
  2  4  1  0  0  0
  4  5  1  0  0  0
  5  6  2  0  0  0
  5 10  1  0  0  0
  6  7  1  0  0  0
  7  8  2  0  0  0
  8  9  1  0  0  0
  9 10  2  0  0  0
 10 15  1  0  0  0
 11 12  2  0  0  0
 12 13  1  0  0  0
 12 16  1  0  0  0
 13 14  1  0  0  0
 14 15  1  0  0  0
 16 17  1  0  0  0
 17 18  1  0  0  0
 17 22  1  0  0  0
 18 19  1  0  0  0
 19 20  1  0  0  0
 20 21  1  0  0  0
 21 22  1  0  0  0
M  END
> <entry id>
334

> <entry name>
breed_3.5

> <Breed Score>
9.52598392493274

> <Normalized Breed Score>
9.52598392493274

> <job name>
breed_3

> <subgroup title>
breed_3-out1

> <subgroupid>
breed_3-out1

> <subgroup collapsed>
0

$$$$
x0540_+_x0107
                    3D
 Schrodinger Suite 2021-3.
  7  7  0  0  1  0            999 V2000
    5.2790    0.4030   20.2480 C   0  0  0  0  0  0
    6.3500   -0.3670   19.7920 C   0  0  0  0  0  0
    6.7350   -0.2560   18.4630 C   0  0  0  0  0  0
    6.0990    0.5510   17.6440 N   0  0  0  0  0  0
    5.0630    1.2880   18.0500 C   0  0  0  0  0  0
    4.6090    1.2540   19.3650 C   0  0  0  0  0  0
    5.4110    0.6350   21.8710 C   0  0  0  0  0  0
  1  2  2  0  0  0
  1  6  1  0  0  0
  1  7  1  0  0  0
  2  3  1  0  0  0
  3  4  2  0  0  0
  4  5  1  0  0  0
  5  6  2  0  0  0
M  END
> <entry id>
335

> <entry name>
breed_3.6

> <Breed Score>
9.52598392493274

> <Normalized Breed Score>
9.52598392493274

> <job name>
breed_3

> <subgroup title>
breed_3-out1

> <subgroupid>
breed_3-out1

> <subgroup collapsed>
0

$$$$
x0678_+_x0107
                    3D
 Schrodinger Suite 2021-3.
 17 18  0  0  1  0            999 V2000
    9.4040    1.0680   21.0150 O   0  0  0  0  0  0
    8.8500    0.2760   21.7080 C   0  0  0  0  0  0
    9.4020   -0.2050   23.0430 C   0  0  0  0  0  0
   10.9190   -0.1110   23.1090 C   0  0  0  0  0  0
   11.5720   -1.0600   22.1040 C   0  0  0  0  0  0
   12.8180   -1.7530   22.6490 C   0  0  0  0  0  0
   13.6290   -0.9180   23.6290 C   0  0  0  0  0  0
   12.8010   -0.2070   24.6930 C   0  0  0  0  0  0
   11.3030   -0.4330   24.5430 C   0  0  0  0  0  0
    7.9020   -0.6880   21.1000 N   0  0  0  0  0  0
    7.0480   -0.1040   20.0780 C   0  0  0  0  0  0
    7.4210   -0.1700   18.7420 C   0  0  0  0  0  0
    6.6690    0.3470   17.7900 N   0  0  0  0  0  0
    5.5370    0.9500   18.0780 C   0  0  0  0  0  0
    5.0830    1.0730   19.3850 C   0  0  0  0  0  0
    5.8540    0.5290   20.4130 C   0  0  0  0  0  0
    5.4110    0.6350   21.8710 C   0  0  0  0  0  0
  1  2  2  0  0  0
  2  3  1  0  0  0
  2 10  1  0  0  0
  3  4  1  0  0  0
  4  5  1  0  0  0
  4  9  1  0  0  0
  5  6  1  0  0  0
  6  7  1  0  0  0
  7  8  1  0  0  0
  8  9  1  0  0  0
 10 11  1  0  0  0
 11 12  2  0  0  0
 11 16  1  0  0  0
 12 13  1  0  0  0
 13 14  2  0  0  0
 14 15  1  0  0  0
 15 16  2  0  0  0
 16 17  1  0  0  0
M  END
> <entry id>
336

> <entry name>
breed_3.7

> <Breed Score>
4.48361615082797

> <Normalized Breed Score>
4.48361615082797

> <job name>
breed_3

> <subgroup title>
breed_3-out1

> <subgroupid>
breed_3-out1

> <subgroup collapsed>
0

$$$$
x0104_+_x0161
                    3D
 Schrodinger Suite 2021-3.
 14 14  0  0  1  0            999 V2000
    9.0040    6.1980   22.6350 C   0  0  0  0  0  0
   13.6050   -2.4160   24.3220 C   0  0  0  0  0  0
   13.1170   -1.1200   24.5710 O   0  0  0  0  0  0
   13.2380   -0.1860   23.5320 C   0  0  0  0  0  0
   13.9350   -0.4020   22.6030 O   0  0  0  0  0  0
   12.4800    1.1370   23.6130 C   0  0  0  0  0  0
   11.2610    1.2070   24.2730 C   0  0  0  0  0  0
   10.5870    2.4180   24.3500 C   0  0  0  0  0  0
   11.1380    3.5520   23.7620 C   0  0  0  0  0  0
   12.3570    3.4780   23.1020 C   0  0  0  0  0  0
   13.0250    2.2710   23.0320 C   0  0  0  0  0  0
   10.2760    5.1400   23.8560 S   0  0  0  0  0  0
   11.1510    6.2430   23.4470 O   0  0  0  0  0  0
    9.9860    5.4750   25.2520 O   0  0  0  0  0  0
  1 12  1  0  0  0
  2  3  1  0  0  0
  3  4  1  0  0  0
  4  5  2  0  0  0
  4  6  1  0  0  0
  6  7  2  0  0  0
  6 11  1  0  0  0
  7  8  1  0  0  0
  8  9  2  0  0  0
  9 10  1  0  0  0
  9 12  1  0  0  0
 10 11  2  0  0  0
 12 13  2  0  0  0
 12 14  2  0  0  0
M  END
> <entry id>
337

> <entry name>
breed_3.8

> <Breed Score>
14.4481044919406

> <Normalized Breed Score>
14.4481044919406

> <job name>
breed_3

> <subgroup title>
breed_3-out1

> <subgroupid>
breed_3-out1

> <subgroup collapsed>
0

$$$$
x0161_+_x0104
                    3D
 Schrodinger Suite 2021-3.
 16 17  0  0  1  0            999 V2000
    8.8550    5.1150   22.9090 N   0  0  0  0  0  0
   10.2850    5.8990   23.4050 C   0  0  0  0  0  0
   10.3240    6.0920   24.5690 O   0  0  0  0  0  0
   11.4370    5.3670   22.6980 N   0  0  0  0  0  0
   12.6780    5.0360   23.3720 C   0  0  0  0  0  0
   13.0570    3.6080   22.9760 C   0  0  0  0  0  0
   12.0700    2.5240   23.4390 C   0  0  0  0  0  0
   10.9450    2.7020   24.2270 C   0  0  0  0  0  0
   10.3550    1.5250   24.3920 N   0  0  0  0  0  0
   11.0490    0.5500   23.7390 C   0  0  0  0  0  0
   10.8220   -0.8470   23.6180 C   0  0  0  0  0  0
   11.7050   -1.6260   22.8750 C   0  0  0  0  0  0
   12.8090   -1.0330   22.2540 C   0  0  0  0  0  0
   13.0310    0.3370   22.3800 C   0  0  0  0  0  0
   12.1330    1.1400   23.1340 C   0  0  0  0  0  0
   13.6780   -1.7900   21.5250 F   0  0  0  0  0  0
  1  2  1  0  0  0
  2  3  2  0  0  0
  2  4  1  0  0  0
  4  5  1  0  0  0
  5  6  1  0  0  0
  6  7  1  0  0  0
  7  8  2  0  0  0
  7 15  1  0  0  0
  8  9  1  0  0  0
  9 10  1  0  0  0
 10 11  1  0  0  0
 10 15  2  0  0  0
 11 12  2  0  0  0
 12 13  1  0  0  0
 13 14  2  0  0  0
 13 16  1  0  0  0
 14 15  1  0  0  0
M  END
> <entry id>
338

> <entry name>
breed_3.9

> <Breed Score>
14.4481044919406

> <Normalized Breed Score>
14.4481044919406

> <job name>
breed_3

> <subgroup title>
breed_3-out1

> <subgroupid>
breed_3-out1

> <subgroup collapsed>
0

$$$$
x0464_+_x0390
                    3D
 Schrodinger Suite 2021-3.
 16 17  0  0  1  0            999 V2000
   22.3370   15.0020    8.4520 C   0  0  0  0  0  0
   21.2230   14.9100    7.4100 C   0  0  2  0  0  0
   20.5140   13.5680    7.6580 C   0  0  1  0  0  0
   19.1470   13.7530    7.4130 O   0  0  0  0  0  0
   20.9970   12.4680    6.8600 C   0  0  0  0  0  0
   22.3070   12.6320    6.2870 C   0  0  0  0  0  0
   22.5310   13.9620    5.5830 C   0  0  0  0  0  0
   21.7530   15.0900    6.0650 N   0  0  2  0  0  0
   22.3980   16.1320    5.8830 C   0  0  0  0  0  0
   22.6610   17.7990    2.8820 O   0  0  0  0  0  0
   21.9710   18.3010    3.9900 C   0  0  0  0  0  0
   21.1020   19.3760    3.8540 C   0  0  0  0  0  0
   20.4340   19.8580    4.9690 C   0  0  0  0  0  0
   20.6130   19.2660    6.2140 C   0  0  0  0  0  0
   21.4780   18.1860    6.3500 C   0  0  0  0  0  0
   22.1510   17.7070    5.2310 C   0  0  0  0  0  0
  1  2  1  0  0  0
  2  3  1  0  0  0
  2  8  1  0  0  0
  3  4  1  0  0  0
  3  5  1  0  0  0
  5  6  1  0  0  0
  6  7  1  0  0  0
  7  8  1  0  0  0
  8  9  1  0  0  0
  9 16  1  0  0  0
 10 11  1  0  0  0
 11 12  2  0  0  0
 11 16  1  0  0  0
 12 13  1  0  0  0
 13 14  2  0  0  0
 14 15  1  0  0  0
 15 16  2  0  0  0
M  END
> <entry id>
339

> <entry name>
breed_3.10

> <Breed Score>
12.0507798310558

> <Normalized Breed Score>
12.0507798310558

> <job name>
breed_3

> <subgroup title>
breed_3-out1

> <subgroupid>
breed_3-out1

> <subgroup collapsed>
0

$$$$
x0390_+_x0464
                    3D
 Schrodinger Suite 2021-3.
 17 19  0  0  1  0            999 V2000
   23.1130   16.5350    5.3340 C   0  0  0  0  0  0
   22.6910   15.4450    4.4740 N   0  0  0  0  0  0
   23.5980   14.3300    4.2680 C   0  0  0  0  0  0
   24.7370   14.1530    4.9360 N   0  0  0  0  0  0
   25.3350   13.0130    4.4900 C   0  0  0  0  0  0
   26.5520   12.3520    4.8450 C   0  0  0  0  0  0
   26.9100   11.1690    4.2020 C   0  0  0  0  0  0
   26.0860   10.6330    3.2080 C   0  0  0  0  0  0
   24.9040   11.2800    2.8620 C   0  0  0  0  0  0
   24.5300   12.4870    3.5240 C   0  0  0  0  0  0
   23.4640   13.3200    3.4080 N   0  0  0  0  0  0
   21.5890   17.3910    5.5690 C   0  0  0  0  0  0
   21.2210   17.6390    4.2520 C   0  0  0  0  0  0
   20.5070   18.7870    3.9340 C   0  0  0  0  0  0
   20.1740   19.6930    4.9310 C   0  0  0  0  0  0
   20.5490   19.4560    6.2460 C   0  0  0  0  0  0
   21.2670   18.3090    6.5660 C   0  0  0  0  0  0
  1  2  1  0  0  0
  1 12  1  0  0  0
  2  3  1  0  0  0
  3  4  2  0  0  0
  3 11  1  0  0  0
  4  5  1  0  0  0
  5  6  2  0  0  0
  5 10  1  0  0  0
  6  7  1  0  0  0
  7  8  2  0  0  0
  8  9  1  0  0  0
  9 10  2  0  0  0
 10 11  1  0  0  0
 12 13  2  0  0  0
 12 17  1  0  0  0
 13 14  1  0  0  0
 14 15  2  0  0  0
 15 16  1  0  0  0
 16 17  2  0  0  0
M  END
> <entry id>
340

> <entry name>
breed_3.11

> <Breed Score>
12.0507798310558

> <Normalized Breed Score>
12.0507798310558

> <job name>
breed_3

> <subgroup title>
breed_3-out1

> <subgroupid>
breed_3-out1

> <subgroup collapsed>
0

$$$$
x0390_+_x1163
                    3D
 Schrodinger Suite 2021-3.
 14 15  0  0  1  0            999 V2000
   22.6610   17.7990    2.8820 O   0  0  0  0  0  0
   21.9710   18.3010    3.9900 C   0  0  0  0  0  0
   21.1020   19.3760    3.8540 C   0  0  0  0  0  0
   20.4340   19.8580    4.9690 C   0  0  0  0  0  0
   20.6130   19.2660    6.2140 C   0  0  0  0  0  0
   21.4780   18.1860    6.3500 C   0  0  0  0  0  0
   22.1510   17.7070    5.2310 C   0  0  0  0  0  0
   22.2800   16.3730    5.4540 C   0  0  0  0  0  0
   21.7860   15.1330    6.1920 C   0  0  0  0  0  0
   22.4070   13.9340    5.9030 C   0  0  0  0  0  0
   22.0100   12.7740    6.5330 C   0  0  0  0  0  0
   20.9920   12.7990    7.4660 C   0  0  0  0  0  0
   20.3780   13.9780    7.7650 C   0  0  0  0  0  0
   20.7740   15.1520    7.1240 C   0  0  0  0  0  0
  1  2  1  0  0  0
  2  3  2  0  0  0
  2  7  1  0  0  0
  3  4  1  0  0  0
  4  5  2  0  0  0
  5  6  1  0  0  0
  6  7  2  0  0  0
  7  8  1  0  0  0
  8  9  1  0  0  0
  9 10  2  0  0  0
  9 14  1  0  0  0
 10 11  1  0  0  0
 11 12  2  0  0  0
 12 13  1  0  0  0
 13 14  2  0  0  0
M  END
> <entry id>
341

> <entry name>
breed_3.12

> <Breed Score>
7.67590100336053

> <Normalized Breed Score>
7.67590100336053

> <job name>
breed_3

> <subgroup title>
breed_3-out1

> <subgroupid>
breed_3-out1

> <subgroup collapsed>
0

$$$$
x1163_+_x0390
                    3D
 Schrodinger Suite 2021-3.
 19 21  0  0  1  0            999 V2000
   21.7580   21.3950    4.6300 O   0  0  0  0  0  0
   21.8760   20.2070    3.9640 C   0  0  0  0  0  0
   20.6570   19.3590    4.2110 C   0  0  1  0  0  0
   21.0650   17.8660    4.1980 C   0  0  0  0  0  0
   21.4090   17.3270    5.4820 N   0  0  2  0  0  0
   21.6380   18.2680    6.4960 C   0  0  0  0  0  0
   20.4760   19.2700    6.6260 C   0  0  0  0  0  0
   19.9970   19.7860    5.3900 O   0  0  0  0  0  0
   23.1130   16.5350    5.3340 C   0  0  0  0  0  0
   22.6910   15.4450    4.4740 N   0  0  0  0  0  0
   23.5980   14.3300    4.2680 C   0  0  0  0  0  0
   24.7370   14.1530    4.9360 N   0  0  0  0  0  0
   25.3350   13.0130    4.4900 C   0  0  0  0  0  0
   26.5520   12.3520    4.8450 C   0  0  0  0  0  0
   26.9100   11.1690    4.2020 C   0  0  0  0  0  0
   26.0860   10.6330    3.2080 C   0  0  0  0  0  0
   24.9040   11.2800    2.8620 C   0  0  0  0  0  0
   24.5300   12.4870    3.5240 C   0  0  0  0  0  0
   23.4640   13.3200    3.4080 N   0  0  0  0  0  0
  1  2  1  0  0  0
  2  3  1  0  0  0
  3  4  1  0  0  0
  3  8  1  0  0  0
  4  5  1  0  0  0
  5  6  1  0  0  0
  5  9  1  0  0  0
  6  7  1  0  0  0
  7  8  1  0  0  0
  9 10  1  0  0  0
 10 11  1  0  0  0
 11 12  2  0  0  0
 11 19  1  0  0  0
 12 13  1  0  0  0
 13 14  2  0  0  0
 13 18  1  0  0  0
 14 15  1  0  0  0
 15 16  2  0  0  0
 16 17  1  0  0  0
 17 18  2  0  0  0
 18 19  1  0  0  0
M  END
> <entry id>
342

> <entry name>
breed_3.13

> <Breed Score>
7.67590100336053

> <Normalized Breed Score>
7.67590100336053

> <job name>
breed_3

> <subgroup title>
breed_3-out1

> <subgroupid>
breed_3-out1

> <subgroup collapsed>
0

$$$$
