x0374_2_0_+_x0220_1_0
                    3D
 Schrodinger Suite 2021-3.
 16 18  0  0  1  0            999 V2000
   59.0140   77.3180   35.9910 C   0  0  0  0  0  0
   60.3880   75.3110   37.3540 N   0  0  0  0  0  0
   60.1620   76.7800   35.4580 C   0  0  0  0  0  0
   60.8190   75.7990   36.1800 C   0  0  0  0  0  0
   59.2520   75.8300   37.8570 C   0  0  0  0  0  0
   58.5380   76.8360   37.1940 C   0  0  0  0  0  0
   57.8630   74.7340   39.1770 N   0  0  0  0  0  0
   55.9260   72.2860   42.3600 N   0  0  0  0  0  0
   57.1600   71.7910   42.7040 N   0  0  0  0  0  0
   59.4460   72.0530   41.9690 N   0  0  0  0  0  0
   59.6810   73.6180   40.1560 N   0  0  0  0  0  0
   58.3590   73.8510   40.0890 C   0  0  0  0  0  0
   57.5020   73.1960   41.0200 C   0  0  0  0  0  0
   56.1270   73.1220   41.3610 C   0  0  0  0  0  0
   58.1280   72.3120   41.9310 C   0  0  0  0  0  0
   60.1340   72.7470   41.0660 C   0  0  0  0  0  0
  1  3  2  0  0  0
  1  6  1  0  0  0
  2  4  2  0  0  0
  2  5  1  0  0  0
  3  4  1  0  0  0
  5  6  2  0  0  0
  5  7  1  0  0  0
  7 12  1  0  0  0
  8  9  1  0  0  0
  8 14  2  0  0  0
  9 15  1  0  0  0
 10 15  2  0  0  0
 10 16  1  0  0  0
 11 12  1  0  0  0
 11 16  2  0  0  0
 12 13  2  0  0  0
 13 14  1  0  0  0
 13 15  1  0  0  0
M  END
> <entry id>
368

> <entry name>
breed_4.1

> <Breed Score>
13.5777852923496

> <Normalized Breed Score>
13.5777852923496

> <job name>
breed_4

> <subgroup title>
breed_4-out1

> <subgroupid>
breed_4-out1

> <subgroup collapsed>
0

$$$$
x0220_1_0_+_x0374_2_0
                    3D
 Schrodinger Suite 2021-3.
 15 16  0  0  1  0            999 V2000
   60.1240   77.6190   34.7500 C   0  0  0  0  0  0
   59.5580   76.8320   35.9150 C   0  0  0  0  0  0
   58.4390   77.2900   36.5940 C   0  0  0  0  0  0
   57.9010   76.5910   37.6580 C   0  0  0  0  0  0
   58.4930   75.4090   38.0960 C   0  0  0  0  0  0
   59.6180   74.9340   37.4110 C   0  0  0  0  0  0
   60.1450   75.6560   36.3530 C   0  0  0  0  0  0
   59.4140   73.8760   39.8780 S   0  0  0  0  0  0
   56.4660   72.4880   42.2150 N   0  0  0  0  0  0
   59.0050   71.8370   42.4620 S   0  0  0  0  0  0
   58.7790   75.3020   39.1400 C   0  0  0  0  0  0
   57.7680   75.7800   39.9210 C   0  0  0  0  0  0
   57.1230   74.7370   40.5850 C   0  0  0  0  0  0
   57.9950   73.7230   40.8660 C   0  0  0  0  0  0
   57.7250   72.7110   41.8510 C   0  0  0  0  0  0
  1  2  1  0  0  0
  2  3  2  0  0  0
  2  7  1  0  0  0
  3  4  1  0  0  0
  4  5  2  0  0  0
  5  6  1  0  0  0
  5 11  1  0  0  0
  6  7  2  0  0  0
  8 11  1  0  0  0
  8 14  1  0  0  0
  9 15  1  0  0  0
 10 15  2  0  0  0
 11 12  2  0  0  0
 12 13  1  0  0  0
 13 14  2  0  0  0
 14 15  1  0  0  0
M  END
> <entry id>
369

> <entry name>
breed_4.2

> <Breed Score>
13.5777852923496

> <Normalized Breed Score>
13.5777852923496

> <job name>
breed_4

> <subgroup title>
breed_4-out1

> <subgroupid>
breed_4-out1

> <subgroup collapsed>
0

$$$$
x0374_2_0_+_x0286_1_0
                    3D
 Schrodinger Suite 2021-3.
 14 15  0  0  1  0            999 V2000
   59.0140   77.3180   35.9910 C   0  0  0  0  0  0
   60.3880   75.3110   37.3540 N   0  0  0  0  0  0
   60.1620   76.7800   35.4580 C   0  0  0  0  0  0
   60.8190   75.7990   36.1800 C   0  0  0  0  0  0
   59.2520   75.8300   37.8570 C   0  0  0  0  0  0
   58.5380   76.8360   37.1940 C   0  0  0  0  0  0
   56.6290   71.8450   43.3760 C   0  0  0  0  0  0
   55.9170   72.7640   42.5780 O   0  0  0  0  0  0
   56.5950   73.3510   41.5480 C   0  0  0  0  0  0
   57.0430   72.5950   40.4710 C   0  0  0  0  0  0
   57.7300   73.2190   39.4390 C   0  0  0  0  0  0
   57.9920   74.5840   39.4570 C   0  0  0  0  0  0
   57.5280   75.3120   40.5520 C   0  0  0  0  0  0
   56.8380   74.7100   41.5960 C   0  0  0  0  0  0
  1  3  2  0  0  0
  1  6  1  0  0  0
  2  4  2  0  0  0
  2  5  1  0  0  0
  3  4  1  0  0  0
  5  6  2  0  0  0
  5 12  1  0  0  0
  7  8  1  0  0  0
  8  9  1  0  0  0
  9 10  2  0  0  0
  9 14  1  0  0  0
 10 11  1  0  0  0
 11 12  2  0  0  0
 12 13  1  0  0  0
 13 14  2  0  0  0
M  END
> <entry id>
370

> <entry name>
breed_4.3

> <Breed Score>
14.099636961013

> <Normalized Breed Score>
14.099636961013

> <job name>
breed_4

> <subgroup title>
breed_4-out1

> <subgroupid>
breed_4-out1

> <subgroup collapsed>
0

$$$$
x0286_1_0_+_x0374_2_0
                    3D
 Schrodinger Suite 2021-3.
 20 22  0  0  1  0            999 V2000
   60.5710   73.5780   38.1430 N   0  0  0  0  0  0
   60.2140   72.2730   36.2900 O   0  0  0  0  0  0
   58.6950   75.2580   38.3260 C   0  0  0  0  0  0
   58.1490   76.4310   37.8010 C   0  0  0  0  0  0
   58.7670   77.1250   36.7750 C   0  0  0  0  0  0
   59.9160   76.6290   36.1790 C   0  0  0  0  0  0
   60.5070   75.4710   36.6430 C   0  0  0  0  0  0
   59.9290   74.7710   37.6970 C   0  0  0  0  0  0
   61.1610   73.4620   39.4840 C   0  0  0  0  0  0
   61.8720   72.1270   39.4830 C   0  0  0  0  0  0
   61.7200   71.5630   38.0790 C   0  0  0  0  0  0
   60.7460   72.4660   37.3710 C   0  0  0  0  0  0
   59.4140   73.8760   39.8780 S   0  0  0  0  0  0
   56.4660   72.4880   42.2150 N   0  0  0  0  0  0
   59.0050   71.8370   42.4620 S   0  0  0  0  0  0
   58.7790   75.3020   39.1400 C   0  0  0  0  0  0
   57.7680   75.7800   39.9210 C   0  0  0  0  0  0
   57.1230   74.7370   40.5850 C   0  0  0  0  0  0
   57.9950   73.7230   40.8660 C   0  0  0  0  0  0
   57.7250   72.7110   41.8510 C   0  0  0  0  0  0
  1  8  1  0  0  0
  1  9  1  0  0  0
  1 12  1  0  0  0
  2 12  2  0  0  0
  3  4  2  0  0  0
  3  8  1  0  0  0
  3 16  1  0  0  0
  4  5  1  0  0  0
  5  6  2  0  0  0
  6  7  1  0  0  0
  7  8  2  0  0  0
  9 10  1  0  0  0
 10 11  1  0  0  0
 11 12  1  0  0  0
 13 16  1  0  0  0
 13 19  1  0  0  0
 14 20  1  0  0  0
 15 20  2  0  0  0
 16 17  2  0  0  0
 17 18  1  0  0  0
 18 19  2  0  0  0
 19 20  1  0  0  0
M  END
> <entry id>
371

> <entry name>
breed_4.4

> <Breed Score>
14.099636961013

> <Normalized Breed Score>
14.099636961013

> <job name>
breed_4

> <subgroup title>
breed_4-out1

> <subgroupid>
breed_4-out1

> <subgroup collapsed>
0

$$$$
x0374_2_1_+_x0220_1_1
                    3D
 Schrodinger Suite 2021-3.
 14 15  0  0  1  0            999 V2000
   56.6530   76.4660   33.2560 C   0  0  0  0  0  0
   58.3980   74.4010   33.9410 N   0  0  0  0  0  0
   57.7390   76.1770   32.4610 C   0  0  0  0  0  0
   58.5740   75.1430   32.8360 C   0  0  0  0  0  0
   57.3400   74.6940   34.7210 C   0  0  0  0  0  0
   56.4450   75.7210   34.3990 C   0  0  0  0  0  0
   60.0170   69.4460   39.4510 C   0  0  0  0  0  0
   57.5370   72.9350   35.6330 N   0  0  0  0  0  0
   59.3740   70.3570   38.4370 C   0  0  0  0  0  0
   58.0600   70.7660   38.5720 C   0  0  0  0  0  0
   57.4650   71.6050   37.6450 C   0  0  0  0  0  0
   58.1930   72.0670   36.5430 C   0  0  0  0  0  0
   59.5170   71.6590   36.3990 C   0  0  0  0  0  0
   60.0890   70.8270   37.3470 C   0  0  0  0  0  0
  1  3  2  0  0  0
  1  6  1  0  0  0
  2  4  2  0  0  0
  2  5  1  0  0  0
  3  4  1  0  0  0
  5  6  2  0  0  0
  5  8  1  0  0  0
  7  9  1  0  0  0
  8 12  1  0  0  0
  9 10  2  0  0  0
  9 14  1  0  0  0
 10 11  1  0  0  0
 11 12  2  0  0  0
 12 13  1  0  0  0
 13 14  2  0  0  0
M  END
> <entry id>
372

> <entry name>
breed_4.5

> <Breed Score>
15.5812695136032

> <Normalized Breed Score>
15.5812695136032

> <job name>
breed_4

> <subgroup title>
breed_4-out1

> <subgroupid>
breed_4-out1

> <subgroup collapsed>
0

$$$$
x0220_1_1_+_x0374_2_1
                    3D
 Schrodinger Suite 2021-3.
 17 19  0  0  1  0            999 V2000
   56.0750   76.6480   33.7050 N   0  0  0  0  0  0
   57.0860   76.5480   32.7840 N   0  0  0  0  0  0
   58.9360   75.0490   32.3180 N   0  0  0  0  0  0
   59.0760   73.2050   33.8580 N   0  0  0  0  0  0
   58.0100   73.6370   34.5620 C   0  0  0  0  0  0
   57.3360   74.8150   34.1420 C   0  0  0  0  0  0
   56.2280   75.6180   34.5180 C   0  0  0  0  0  0
   57.8610   75.4670   33.0100 C   0  0  0  0  0  0
   59.4760   73.9320   32.8050 C   0  0  0  0  0  0
   58.2160   72.5420   36.2540 S   0  0  0  0  0  0
   56.9030   70.8600   39.5850 N   0  0  0  0  0  0
   59.2070   70.4200   38.4040 S   0  0  0  0  0  0
   57.1600   73.8730   35.9240 C   0  0  0  0  0  0
   56.2130   74.0050   36.9100 C   0  0  0  0  0  0
   56.2380   72.9580   37.8360 C   0  0  0  0  0  0
   57.3460   72.1590   37.6940 C   0  0  0  0  0  0
   57.7330   71.1630   38.6030 C   0  0  0  0  0  0
  1  2  1  0  0  0
  1  7  2  0  0  0
  2  8  1  0  0  0
  3  8  2  0  0  0
  3  9  1  0  0  0
  4  5  1  0  0  0
  4  9  2  0  0  0
  5  6  2  0  0  0
  5 13  1  0  0  0
  6  7  1  0  0  0
  6  8  1  0  0  0
 10 13  1  0  0  0
 10 16  1  0  0  0
 11 17  1  0  0  0
 12 17  2  0  0  0
 13 14  2  0  0  0
 14 15  1  0  0  0
 15 16  2  0  0  0
 16 17  1  0  0  0
M  END
> <entry id>
373

> <entry name>
breed_4.6

> <Breed Score>
15.5812695136032

> <Normalized Breed Score>
15.5812695136032

> <job name>
breed_4

> <subgroup title>
breed_4-out1

> <subgroupid>
breed_4-out1

> <subgroup collapsed>
0

$$$$
x0220_1_0_+_x0286_1_0
                    3D
 Schrodinger Suite 2021-3.
 22 25  0  0  1  0            999 V2000
   57.8630   74.7340   39.1770 N   0  0  0  0  0  0
   55.9260   72.2860   42.3600 N   0  0  0  0  0  0
   57.1600   71.7910   42.7040 N   0  0  0  0  0  0
   59.4460   72.0530   41.9690 N   0  0  0  0  0  0
   59.6810   73.6180   40.1560 N   0  0  0  0  0  0
   58.3590   73.8510   40.0890 C   0  0  0  0  0  0
   57.5020   73.1960   41.0200 C   0  0  0  0  0  0
   56.1270   73.1220   41.3610 C   0  0  0  0  0  0
   58.1280   72.3120   41.9310 C   0  0  0  0  0  0
   60.1340   72.7470   41.0660 C   0  0  0  0  0  0
   60.5710   73.5780   38.1430 N   0  0  0  0  0  0
   60.2140   72.2730   36.2900 O   0  0  0  0  0  0
   58.6950   75.2580   38.3260 C   0  0  0  0  0  0
   58.1490   76.4310   37.8010 C   0  0  0  0  0  0
   58.7670   77.1250   36.7750 C   0  0  0  0  0  0
   59.9160   76.6290   36.1790 C   0  0  0  0  0  0
   60.5070   75.4710   36.6430 C   0  0  0  0  0  0
   59.9290   74.7710   37.6970 C   0  0  0  0  0  0
   61.1610   73.4620   39.4840 C   0  0  0  0  0  0
   61.8720   72.1270   39.4830 C   0  0  0  0  0  0
   61.7200   71.5630   38.0790 C   0  0  0  0  0  0
   60.7460   72.4660   37.3710 C   0  0  0  0  0  0
  1  6  1  0  0  0
  1 13  1  0  0  0
  2  3  1  0  0  0
  2  8  2  0  0  0
  3  9  1  0  0  0
  4  9  2  0  0  0
  4 10  1  0  0  0
  5  6  1  0  0  0
  5 10  2  0  0  0
  6  7  2  0  0  0
  7  8  1  0  0  0
  7  9  1  0  0  0
 11 18  1  0  0  0
 11 19  1  0  0  0
 11 22  1  0  0  0
 12 22  2  0  0  0
 13 14  2  0  0  0
 13 18  1  0  0  0
 14 15  1  0  0  0
 15 16  2  0  0  0
 16 17  1  0  0  0
 17 18  2  0  0  0
 19 20  1  0  0  0
 20 21  1  0  0  0
 21 22  1  0  0  0
M  END
> <entry id>
374

> <entry name>
breed_4.7

> <Breed Score>
2.76781424178408

> <Normalized Breed Score>
2.76781424178408

> <job name>
breed_4

> <subgroup title>
breed_4-out1

> <subgroupid>
breed_4-out1

> <subgroup collapsed>
0

$$$$
x0286_1_0_+_x0220_1_0
                    3D
 Schrodinger Suite 2021-3.
 15 16  0  0  1  0            999 V2000
   56.6290   71.8450   43.3760 C   0  0  0  0  0  0
   55.9170   72.7640   42.5780 O   0  0  0  0  0  0
   56.5950   73.3510   41.5480 C   0  0  0  0  0  0
   57.0430   72.5950   40.4710 C   0  0  0  0  0  0
   57.7300   73.2190   39.4390 C   0  0  0  0  0  0
   57.9920   74.5840   39.4570 C   0  0  0  0  0  0
   57.5280   75.3120   40.5520 C   0  0  0  0  0  0
   56.8380   74.7100   41.5960 C   0  0  0  0  0  0
   60.1240   77.6190   34.7500 C   0  0  0  0  0  0
   59.5580   76.8320   35.9150 C   0  0  0  0  0  0
   58.4390   77.2900   36.5940 C   0  0  0  0  0  0
   57.9010   76.5910   37.6580 C   0  0  0  0  0  0
   58.4930   75.4090   38.0960 C   0  0  0  0  0  0
   59.6180   74.9340   37.4110 C   0  0  0  0  0  0
   60.1450   75.6560   36.3530 C   0  0  0  0  0  0
  1  2  1  0  0  0
  2  3  1  0  0  0
  3  4  2  0  0  0
  3  8  1  0  0  0
  4  5  1  0  0  0
  5  6  2  0  0  0
  6  7  1  0  0  0
  6 13  1  0  0  0
  7  8  2  0  0  0
  9 10  1  0  0  0
 10 11  2  0  0  0
 10 15  1  0  0  0
 11 12  1  0  0  0
 12 13  2  0  0  0
 13 14  1  0  0  0
 14 15  2  0  0  0
M  END
> <entry id>
375

> <entry name>
breed_4.8

> <Breed Score>
2.76781424178408

> <Normalized Breed Score>
2.76781424178408

> <job name>
breed_4

> <subgroup title>
breed_4-out1

> <subgroupid>
breed_4-out1

> <subgroup collapsed>
0

$$$$
x0149_1_0_+_x0151_1_0
                    3D
 Schrodinger Suite 2021-3.
  9  9  0  0  1  0            999 V2000
   52.7940   67.5910   41.9330 C   0  0  0  0  0  0
   54.5800   67.8180   43.2790 N   0  0  0  0  0  0
   53.5810   66.9350   42.8000 O   0  0  0  0  0  0
   53.2450   68.8470   41.8370 C   0  0  0  0  0  0
   55.1260   70.0880   42.8860 N   0  0  0  0  0  0
   54.9250   71.0650   40.8370 O   0  0  0  0  0  0
   54.3490   68.9500   42.6780 C   0  0  0  0  0  0
   55.4040   71.0390   41.9700 C   0  0  0  0  0  0
   55.3140   72.0260   41.9770 C   0  0  0  0  0  0
  1  3  1  0  0  0
  1  4  2  0  0  0
  2  3  1  0  0  0
  2  7  2  0  0  0
  4  7  1  0  0  0
  5  7  1  0  0  0
  5  8  1  0  0  0
  6  8  2  0  0  0
  8  9  1  0  0  0
M  END
> <entry id>
376

> <entry name>
breed_4.9

> <Breed Score>
15.2778005075569

> <Normalized Breed Score>
15.2778005075569

> <job name>
breed_4

> <subgroup title>
breed_4-out1

> <subgroupid>
breed_4-out1

> <subgroup collapsed>
0

$$$$
x0151_1_0_+_x0149_1_0
                    3D
 Schrodinger Suite 2021-3.
 23 24  0  0  1  0            999 V2000
   53.3170   67.6150   43.3380 C   0  0  0  0  0  0
   53.1150   72.3130   40.0560 N   0  0  0  0  0  0
   55.1350   72.1780   39.0020 O   0  0  0  0  0  0
   53.2710   68.8510   42.4690 C   0  0  0  0  0  0
   52.6650   74.6840   38.8640 O   0  0  0  0  0  0
   54.2400   69.8390   42.5800 C   0  0  0  0  0  0
   54.2250   70.9930   41.8010 C   0  0  0  0  0  0
   53.1790   71.1400   40.8760 C   0  0  0  0  0  0
   52.1770   70.1660   40.7400 C   0  0  0  0  0  0
   52.2490   69.0370   41.5510 C   0  0  0  0  0  0
   51.0400   70.3080   39.7650 C   0  0  0  0  0  0
   54.1270   72.7990   39.3150 C   0  0  0  0  0  0
   53.9960   74.2330   38.8830 C   0  0  0  0  0  0
   52.1220   74.7110   37.5470 C   0  0  0  0  0  0
   56.3650   72.1160   42.4600 C   0  0  1  0  0  0
   57.7920   71.6110   42.2630 C   0  0  0  0  0  0
   58.6750   71.5530   43.3350 C   0  0  0  0  0  0
   59.9740   71.0990   43.1650 C   0  0  0  0  0  0
   60.4000   70.6660   41.9290 C   0  0  0  0  0  0
   59.5370   70.7020   40.8570 C   0  0  0  0  0  0
   58.2350   71.1600   41.0210 C   0  0  0  0  0  0
   56.0830   73.4400   41.7390 C   0  0  0  0  0  0
   56.8640   74.5950   42.2730 C   0  0  0  0  0  0
  1  4  1  0  0  0
  2  8  1  0  0  0
  2 12  1  0  0  0
  3 12  2  0  0  0
  4  6  2  0  0  0
  4 10  1  0  0  0
  5 13  1  0  0  0
  5 14  1  0  0  0
  6  7  1  0  0  0
  7  8  2  0  0  0
  7 15  1  0  0  0
  8  9  1  0  0  0
  9 10  2  0  0  0
  9 11  1  0  0  0
 12 13  1  0  0  0
 15 16  1  0  0  0
 15 22  1  0  0  0
 16 17  2  0  0  0
 16 21  1  0  0  0
 17 18  1  0  0  0
 18 19  2  0  0  0
 19 20  1  0  0  0
 20 21  2  0  0  0
 22 23  1  0  0  0
M  END
> <entry id>
377

> <entry name>
breed_4.10

> <Breed Score>
15.2778005075569

> <Normalized Breed Score>
15.2778005075569

> <job name>
breed_4

> <subgroup title>
breed_4-out1

> <subgroupid>
breed_4-out1

> <subgroup collapsed>
0

$$$$
x0299_1_0_+_x0151_1_0
                    3D
 Schrodinger Suite 2021-3.
 25 26  0  0  1  0            999 V2000
   52.2070   71.3980   39.4020 C   0  0  0  0  0  0
   50.9970   71.7570   38.9170 N   0  0  0  0  0  0
   53.1300   71.0240   38.6860 O   0  0  0  0  0  0
   52.3530   71.4800   40.9190 C   0  0  0  0  0  0
   50.7890   69.5430   33.1940 O   0  0  0  0  0  0
   52.8280   70.0940   34.1740 O   0  0  0  0  0  0
   46.4930   72.5020   36.4010 O   0  0  0  0  0  0
   47.4430   73.7450   34.8380 O   0  0  0  0  0  0
   50.5350   71.6610   37.5800 C   0  0  0  0  0  0
   51.2240   71.0020   36.5680 C   0  0  0  0  0  0
   50.7070   70.9460   35.2730 C   0  0  0  0  0  0
   49.4820   71.5580   35.0060 C   0  0  0  0  0  0
   48.7920   72.2190   36.0100 C   0  0  0  0  0  0
   47.4770   72.8720   35.7250 C   0  0  0  0  0  0
   49.3190   72.2670   37.2890 C   0  0  0  0  0  0
   51.4800   70.1800   34.1640 B   0  0  0  0  0  0
   53.3170   67.6150   43.3380 C   0  0  0  0  0  0
   53.2710   68.8510   42.4690 C   0  0  0  0  0  0
   54.2400   69.8390   42.5800 C   0  0  0  0  0  0
   54.2250   70.9930   41.8010 C   0  0  0  0  0  0
   53.1790   71.1400   40.8760 C   0  0  0  0  0  0
   52.1770   70.1660   40.7400 C   0  0  0  0  0  0
   52.2490   69.0370   41.5510 C   0  0  0  0  0  0
   51.0400   70.3080   39.7650 C   0  0  0  0  0  0
   55.3140   72.0260   41.9770 C   0  0  0  0  0  0
  1  2  1  0  0  0
  1  3  2  0  0  0
  1  4  1  0  0  0
  2  9  1  0  0  0
  4 21  1  0  0  0
  5 16  1  0  0  0
  6 16  1  0  0  0
  7 14  2  0  0  0
  8 14  1  0  0  0
  9 10  2  0  0  0
  9 15  1  0  0  0
 10 11  1  0  0  0
 11 12  2  0  0  0
 11 16  1  0  0  0
 12 13  1  0  0  0
 13 14  1  0  0  0
 13 15  2  0  0  0
 17 18  1  0  0  0
 18 19  2  0  0  0
 18 23  1  0  0  0
 19 20  1  0  0  0
 20 21  2  0  0  0
 20 25  1  0  0  0
 21 22  1  0  0  0
 22 23  2  0  0  0
 22 24  1  0  0  0
M  END
> <entry id>
378

> <entry name>
breed_4.11

> <Breed Score>
17.3252014177965

> <Normalized Breed Score>
17.3252014177965

> <job name>
breed_4

> <subgroup title>
breed_4-out1

> <subgroupid>
breed_4-out1

> <subgroup collapsed>
0

$$$$
x0151_1_0_+_x0299_1_0
                    3D
 Schrodinger Suite 2021-3.
 11 11  0  0  1  0            999 V2000
   53.1150   72.3130   40.0560 N   0  0  0  0  0  0
   55.1350   72.1780   39.0020 O   0  0  0  0  0  0
   52.6650   74.6840   38.8640 O   0  0  0  0  0  0
   54.1270   72.7990   39.3150 C   0  0  0  0  0  0
   53.9960   74.2330   38.8830 C   0  0  0  0  0  0
   52.1220   74.7110   37.5470 C   0  0  0  0  0  0
   51.8410   68.7640   41.1860 S   0  0  0  0  0  0
   52.7130   70.1650   41.5480 C   0  0  0  0  0  0
   53.7220   69.9030   42.4640 C   0  0  0  0  0  0
   53.7740   68.5200   42.7920 C   0  0  0  0  0  0
   52.8300   67.7950   42.1710 C   0  0  0  0  0  0
  1  4  1  0  0  0
  1  8  1  0  0  0
  2  4  2  0  0  0
  3  5  1  0  0  0
  3  6  1  0  0  0
  4  5  1  0  0  0
  7  8  1  0  0  0
  7 11  1  0  0  0
  8  9  2  0  0  0
  9 10  1  0  0  0
 10 11  2  0  0  0
M  END
> <entry id>
379

> <entry name>
breed_4.12

> <Breed Score>
17.3252014177965

> <Normalized Breed Score>
17.3252014177965

> <job name>
breed_4

> <subgroup title>
breed_4-out1

> <subgroupid>
breed_4-out1

> <subgroup collapsed>
0

$$$$
